/batch
/config,noeldb,1     ! force off writing results to database
*get,_wallstrt,active,,time,wall
! ANSYS input file written by Workbench version 2022 R1
! File used for geometry attach: C:\Users\TL\OneDrive - Virginia Tech\Projects\Fuselage Actuators Reinforcement Learning\ANSYS\Fuselage Actuator Position_files\dp0\global\MECH\SYS-2\AssembledModel\SYS-2.pmdb
/title,Fuselage Actuator Position--Static Structural (E3)
! ****** Begin Custom Load Command Snippet ******
/COM, ACT Extensions:
/COM,     LSDYNA, 2021.1
/COM,     5f463412-bd3e-484b-87e7-cbc0a665e474, wbex
/COM,
! ****** End   Custom Load Command Snippet ******
*DIM,_wb_ProjectScratch_dir,string,248
_wb_ProjectScratch_dir(1) = 'C:\Users\TL\Projects\Fuselage Actuator Reinforcement Learning\Fuselage Actuator Position_files\dp0\SYS-2\MECH\'
*DIM,_wb_SolverFiles_dir,string,248
_wb_SolverFiles_dir(1) = 'C:\Users\TL\Projects\Fuselage Actuator Reinforcement Learning\Fuselage Actuator Position_files\dp0\SYS-2\MECH\'
*DIM,_wb_userfiles_dir,string,248
_wb_userfiles_dir(1) = 'C:\Users\TL\Projects\Fuselage Actuator Reinforcement Learning\Fuselage Actuator Position_files\user_files\'
/com,--- Data in consistent BIN units. See Solving Units in the help system for more information.
/units,BIN
/nopr
/wb,file,start              !  signify a WB generated input file
/prep7
! Turn off shape checking because checks already performed inside WB mesher.
! See help system for more information.
SHPP,OFF,,NOWARN
/nolist
etcon,set             ! allow ANSYS to choose best KEYOP's for 180x elements, resets any applicable keyopt to MAPDL defaults
/com,*********** Nodes for the whole assembly ***********
nblock,3,,14476
(1i9,3e20.9e3)
        1     2.879999304E+02    -1.039921983E+02     2.351221343E+01
        2     2.880007823E+02    -1.065450976E+02     1.079213738E+00
        3     2.880000739E+02    -1.047415681E+02     1.981745232E+01
        4     2.880002225E+02    -1.053616593E+02     1.609888837E+01
        5     2.880003621E+02    -1.058521023E+02     1.236111339E+01
        6     2.880004982E+02    -1.062127626E+02     8.608713958E+00
        7     2.880006438E+02    -1.064437015E+02     4.846210095E+00
        8     2.760000000E+02    -1.039925486E+02     2.351190933E+01
        9     2.839999125E+02    -1.039923507E+02     2.351214274E+01
       10     2.799999026E+02    -1.039924410E+02     2.351206120E+01
       11     2.760000000E+02    -1.065486522E+02     1.079157710E+00
       12     2.759998834E+02    -1.047422551E+02     1.981723691E+01
       13     2.759999863E+02    -1.053628974E+02     1.609877846E+01
       14     2.760000837E+02    -1.058540141E+02     1.236106165E+01
       15     2.760001743E+02    -1.062153447E+02     8.608644102E+00
       16     2.760002747E+02    -1.064467947E+02     4.846042964E+00
       17     2.800003656E+02    -1.065480938E+02     1.079079628E+00
       18     2.840005652E+02    -1.065468968E+02     1.079146624E+00
       19     1.940000040E+02     1.875400800E+01    -1.063592365E+02
       20     1.980000000E+02     1.875400800E+01    -1.063592365E+02
! ... 13141 like lines cut
/wb,elem,start            !  set before creation of elements
/com,*********** Elements for Body 1 "Surface Body(Static Structural)(ACP (Pre))" ***********
et,1,181
keyo,1,1,0       ! bending and membrane stiffness
keyo,1,3,2
keyo,1,8,2       ! set Layer data storage
eblock,19,solid,,3945
(19i9)
        1        1        1        1        0        0        0        0        4        0       19     9440     9450     9439     9439
        1        1        1        1        0        0        0        0        4        0       20    12495    10378    10376     9386
        1        1        1        1        0        0        0        0        4        0       21    12495     9386    12496     9975
        1        1        1        1        0        0        0        0        4        0       22     9386    10376    10116    12496
        1        1        1        1        0        0        0        0        4        0       23     9449     9441     9396     9394
        1        1        1        1        0        0        0        0        4        0       24     9450     9449     9394     9439
        1        1        1        1        0        0        0        0        4        0       25     9449     9510     9543     9441
        1        1        1        1        0        0        0        0        4        0       26    10378    12495    10236    10379
        1        1        1        1        0        0        0        0        4        0       27     9967    10236    12495     9975
        1        1        1        1        0        0        0        0        4        0       28     9965    10059    10236     9967
        1        1        1        1        0        0        0        0        4        0       29     9555     9558     9702    12483
        1        1        1        1        0        0        0        0        4        0       30     9549     9554     9555    12483
        1        1        1        1        0        0        0        0        4        0       31     9554    12213    12212     9555
        1        1        1        1        0        0        0        0        4        0       32    12481    12214    12213     9554
        1        1        1        1        0        0        0        0        4        0       33     9640     9700     9556     9639
        1        1        1        1        0        0        0        0        4        0       34     9700     9818    12456     9556
        1        1        1        1        0        0        0        0        4        0       35     9821     9640     9639     9820
        1        1        1        1        0        0        0        0        4        0       36     9821     9830     9822     9640
        1        1        1        1        0        0        0        0        4        0       37     9554     9549     9507    12481
        1        1        1        1        0        0        0        0        4        0       38     9627     9714     9713    12746
! ... 3926 like lines cut
!Material Id = {DB4912A7-D56B-4232-BE8A-C245495D2FE1}
/com,*********** Elements for Body 2 "Surface Body(Static Structural)(ACP (Pre))" ***********
et,2,181
keyo,2,1,0       ! bending and membrane stiffness
keyo,2,3,2
keyo,2,8,2       ! set Layer data storage
eblock,19,solid,,8512
(19i9)
        2        2        2        2        0        0        0        0        4        0     3964     3100     3099     2959     2959
        2        2        2        2        0        0        0        0        4        0     3965     9340     2957     9337     9337
        2        2        2        2        0        0        0        0        4        0     3966     1117     1101     1102     1102
        2        2        2        2        0        0        0        0        4        0     3967     1086     1085     1082     1082
        2        2        2        2        0        0        0        0        4        0     3968     4005     4002     3872     3873
        2        2        2        2        0        0        0        0        4        0     3969     3873     4004     9305     4005
        2        2        2        2        0        0        0        0        4        0     3970     9305     4004     1066     1065
        2        2        2        2        0        0        0        0        4        0     3971     9305     1065     9358     4254
        2        2        2        2        0        0        0        0        4        0     3972     9358     1065     1067      372
        2        2        2        2        0        0        0        0        4        0     3973     1066     1068     1067     1065
        2        2        2        2        0        0        0        0        4        0     3974     1066     4004     7323     1068
        2        2        2        2        0        0        0        0        4        0     3975      372     1067     1069      373
        2        2        2        2        0        0        0        0        4        0     3976     1068     1070     1069     1067
        2        2        2        2        0        0        0        0        4        0     3977     1068     7323     7324     1070
        2        2        2        2        0        0        0        0        4        0     3978     1069     7325      374      373
        2        2        2        2        0        0        0        0        4        0     3979     1070     3492     7325     1069
        2        2        2        2        0        0        0        0        4        0     3980     3367     3492     1070     7324
        2        2        2        2        0        0        0        0        4        0     3981     1084     1086     1082     7508
        2        2        2        2        0        0        0        0        4        0     3982     1084     7507     1087     1086
        2        2        2        2        0        0        0        0        4        0     3983     1425     8987     1166     1071
! ... 8493 like lines cut
!Material Id = {8165B298-23E5-40EE-9F51-B44DBDC0CA62}
/com,*********** Elements for Body 3 "Surface Body(Static Structural)(ACP (Pre))" ***********
et,3,181
keyo,3,1,0       ! bending and membrane stiffness
keyo,3,3,2
keyo,3,8,2       ! set Layer data storage
eblock,19,solid,,18
(19i9)
        3        3        3        3        0        0        0        0        4        0        1    13155    13160    13159    13151
        3        3        3        3        0        0        0        0        4        0        2    13151       15       16    13155
        3        3        3        3        0        0        0        0        4        0        3    13159    13158    13152    13151
        3        3        3        3        0        0        0        0        4        0        4    13152       14       15    13151
        3        3        3        3        0        0        0        0        4        0        5    13158    13157    13153    13152
        3        3        3        3        0        0        0        0        4        0        6    13153       13       14    13152
        3        3        3        3        0        0        0        0        4        0        7    13157    13156    13154    13153
        3        3        3        3        0        0        0        0        4        0        8    13154       12       13    13153
        3        3        3        3        0        0        0        0        4        0        9    13154       10        8       12
        3        3        3        3        0        0        0        0        4        0       10    13156        9       10    13154
        3        3        3        3        0        0        0        0        4        0       11    13155       17       18    13160
        3        3        3        3        0        0        0        0        4        0       12    13155       16       11       17
        3        3        3        3        0        0        0        0        4        0       13    13156        3        1        9
        3        3        3        3        0        0        0        0        4        0       14    13157        4        3    13156
        3        3        3        3        0        0        0        0        4        0       15    13158        5        4    13157
        3        3        3        3        0        0        0        0        4        0       16    13159        6        5    13158
        3        3        3        3        0        0        0        0        4        0       17    13160        7        6    13159
        3        3        3        3        0        0        0        0        4        0       18       18        2        7    13160
-1
!Material Id = {1ABDF719-DF4B-45F1-89EE-EBA92CFAFE6D}
/com,*********** Elements for Body 4 "Surface Body(Static Structural)(ACP (Pre))" ***********
et,4,181
keyo,4,1,0       ! bending and membrane stiffness
keyo,4,3,2
keyo,4,8,2       ! set Layer data storage
eblock,19,solid,,164
(19i9)
        4        4        4        4        0        0        0        0        4        0    12476      732      569       21      184
        4        4        4        4        0        0        0        0        4        0    12477      184      183      731      732
        4        4        4        4        0        0        0        0        4        0    12478      183      182      730      731
        4        4        4        4        0        0        0        0        4        0    12479      182      181      729      730
        4        4        4        4        0        0        0        0        4        0    12480      181      180      728      729
        4        4        4        4        0        0        0        0        4        0    12481      180      179      727      728
        4        4        4        4        0        0        0        0        4        0    12482      179      178      726      727
        4        4        4        4        0        0        0        0        4        0    12483      178      177      725      726
        4        4        4        4        0        0        0        0        4        0    12484      177      176      724      725
        4        4        4        4        0        0        0        0        4        0    12485      176      175      723      724
        4        4        4        4        0        0        0        0        4        0    12486      175      174      722      723
        4        4        4        4        0        0        0        0        4        0    12487      174      173      721      722
        4        4        4        4        0        0        0        0        4        0    12488      173      172      720      721
        4        4        4        4        0        0        0        0        4        0    12489      172      171      719      720
        4        4        4        4        0        0        0        0        4        0    12490      171      170      718      719
        4        4        4        4        0        0        0        0        4        0    12491      170      169      717      718
        4        4        4        4        0        0        0        0        4        0    12492      169      168      716      717
        4        4        4        4        0        0        0        0        4        0    12493      168      167      715      716
        4        4        4        4        0        0        0        0        4        0    12494      167      166      714      715
        4        4        4        4        0        0        0        0        4        0    12495      166      165      713      714
! ... 145 like lines cut
!Material Id = {5A4E203E-E6DE-453B-B057-B7A3884B4282}
/com,*********** Elements for Body 5 "Surface Body(Static Structural)(ACP (Pre))" ***********
et,5,181
keyo,5,1,0       ! bending and membrane stiffness
keyo,5,3,2
keyo,5,8,2       ! set Layer data storage
eblock,19,solid,,30
(19i9)
        5        5        5        5        0        0        0        0        4        0    12640     1047     1063     1062     1061
        5        5        5        5        0        0        0        0        4        0    12641     1061     1060     1048     1047
        5        5        5        5        0        0        0        0        4        0    12642     1047      392      393     1063
        5        5        5        5        0        0        0        0        4        0    12643     1048      391      392     1047
        5        5        5        5        0        0        0        0        4        0    12644     1060     1059     1049     1048
        5        5        5        5        0        0        0        0        4        0    12645     1049      390      391     1048
        5        5        5        5        0        0        0        0        4        0    12646     1059     1058     1050     1049
        5        5        5        5        0        0        0        0        4        0    12647     1050      389      390     1049
        5        5        5        5        0        0        0        0        4        0    12648     1058     1057     1051     1050
        5        5        5        5        0        0        0        0        4        0    12649     1051      388      389     1050
        5        5        5        5        0        0        0        0        4        0    12650     1057     1056     1052     1051
        5        5        5        5        0        0        0        0        4        0    12651     1052      387      388     1051
        5        5        5        5        0        0        0        0        4        0    12652     1056     1055     1053     1052
        5        5        5        5        0        0        0        0        4        0    12653     1053      386      387     1052
        5        5        5        5        0        0        0        0        4        0    12654     1055     1064     1054     1053
        5        5        5        5        0        0        0        0        4        0    12655     1054      385      386     1053
        5        5        5        5        0        0        0        0        4        0    12656     1054      371      369      385
        5        5        5        5        0        0        0        0        4        0    12657     1064      370      371     1054
        5        5        5        5        0        0        0        0        4        0    12658     1055      380      381     1064
        5        5        5        5        0        0        0        0        4        0    12659     1056      379      380     1055
! ... 11 like lines cut
!Material Id = {04D6CD0C-8E6C-4F47-B938-14A028FA3416}
/com,*********** Elements for Body 6 "Surface Body(Static Structural)(ACP (Pre))" ***********
et,6,181
keyo,6,1,0       ! bending and membrane stiffness
keyo,6,3,2
keyo,6,8,2       ! set Layer data storage
eblock,19,solid,,30
(19i9)
        6        6        6        6        0        0        0        0        4        0    12670     1029     1045     1044     1043
        6        6        6        6        0        0        0        0        4        0    12671     1043     1042     1030     1029
        6        6        6        6        0        0        0        0        4        0    12672     1029      742      743     1045
        6        6        6        6        0        0        0        0        4        0    12673     1030      741      742     1029
        6        6        6        6        0        0        0        0        4        0    12674     1042     1041     1031     1030
        6        6        6        6        0        0        0        0        4        0    12675     1031      740      741     1030
        6        6        6        6        0        0        0        0        4        0    12676     1041     1040     1032     1031
        6        6        6        6        0        0        0        0        4        0    12677     1032      739      740     1031
        6        6        6        6        0        0        0        0        4        0    12678     1040     1039     1033     1032
        6        6        6        6        0        0        0        0        4        0    12679     1033      738      739     1032
        6        6        6        6        0        0        0        0        4        0    12680     1039     1038     1034     1033
        6        6        6        6        0        0        0        0        4        0    12681     1034      737      738     1033
        6        6        6        6        0        0        0        0        4        0    12682     1038     1037     1035     1034
        6        6        6        6        0        0        0        0        4        0    12683     1035      736      737     1034
        6        6        6        6        0        0        0        0        4        0    12684     1037     1046     1036     1035
        6        6        6        6        0        0        0        0        4        0    12685     1036      735      736     1035
        6        6        6        6        0        0        0        0        4        0    12686     1036      569      734      735
        6        6        6        6        0        0        0        0        4        0    12687     1046       21      569     1036
        6        6        6        6        0        0        0        0        4        0    12688     1037      193      194     1046
        6        6        6        6        0        0        0        0        4        0    12689     1038      192      193     1037
! ... 11 like lines cut
!Material Id = {D335E93E-FD11-49AC-BDC8-1374063BCDDB}
/com,*********** Elements for Body 7 "Surface Body(Static Structural)(ACP (Pre))" ***********
et,7,181
keyo,7,1,0       ! bending and membrane stiffness
keyo,7,3,2
keyo,7,8,2       ! set Layer data storage
eblock,19,solid,,18
(19i9)
        7        7        7        7        0        0        0        0        4        0    12700     1019     1021     1026     1025
        7        7        7        7        0        0        0        0        4        0    12701     1025     1024     1020     1019
        7        7        7        7        0        0        0        0        4        0    12702     1019      364      365     1021
        7        7        7        7        0        0        0        0        4        0    12703     1020      363      364     1019
        7        7        7        7        0        0        0        0        4        0    12704     1024       18       17     1020
        7        7        7        7        0        0        0        0        4        0    12705       17       11      363     1020
        7        7        7        7        0        0        0        0        4        0    12706     1021     1022     1027     1026
        7        7        7        7        0        0        0        0        4        0    12707     1021      365      366     1022
        7        7        7        7        0        0        0        0        4        0    12708     1022     1023     1028     1027
        7        7        7        7        0        0        0        0        4        0    12709     1022      366      367     1023
        7        7        7        7        0        0        0        0        4        0    12710     1023      745      746     1028
        7        7        7        7        0        0        0        0        4        0    12711     1023      367      357      745
        7        7        7        7        0        0        0        0        4        0    12712     1024      747        2       18
        7        7        7        7        0        0        0        0        4        0    12713     1025      748      747     1024
        7        7        7        7        0        0        0        0        4        0    12714     1026      749      748     1025
        7        7        7        7        0        0        0        0        4        0    12715     1027      750      749     1026
        7        7        7        7        0        0        0        0        4        0    12716     1028      751      750     1027
        7        7        7        7        0        0        0        0        4        0    12717      746      744      751     1028
-1
!Material Id = {98924692-1A80-4E1E-A863-96037334A745}
/com,*********** Elements for Body 8 "Surface Body(Static Structural)(ACP (Pre))" ***********
et,8,181
keyo,8,1,0       ! bending and membrane stiffness
keyo,8,3,2
keyo,8,8,2       ! set Layer data storage
eblock,19,solid,,18
(19i9)
        8        8        8        8        0        0        0        0        4        0    12718     1009     1012     1017     1016
        8        8        8        8        0        0        0        0        4        0    12719     1016     1015     1010     1009
        8        8        8        8        0        0        0        0        4        0    12720     1009      276      277     1012
        8        8        8        8        0        0        0        0        4        0    12721     1010      275      276     1009
        8        8        8        8        0        0        0        0        4        0    12722     1015     1014     1011     1010
        8        8        8        8        0        0        0        0        4        0    12723     1011      274      275     1010
        8        8        8        8        0        0        0        0        4        0    12724     1014      758      759     1011
        8        8        8        8        0        0        0        0        4        0    12725      759      273      274     1011
        8        8        8        8        0        0        0        0        4        0    12726     1012     1013     1018     1017
        8        8        8        8        0        0        0        0        4        0    12727     1012      277      278     1013
        8        8        8        8        0        0        0        0        4        0    12728     1013      272      271     1018
        8        8        8        8        0        0        0        0        4        0    12729     1013      278      270      272
        8        8        8        8        0        0        0        0        4        0    12730     1014      753      752      758
        8        8        8        8        0        0        0        0        4        0    12731     1015      754      753     1014
        8        8        8        8        0        0        0        0        4        0    12732     1016      755      754     1015
        8        8        8        8        0        0        0        0        4        0    12733     1017      756      755     1016
        8        8        8        8        0        0        0        0        4        0    12734     1018      757      756     1017
        8        8        8        8        0        0        0        0        4        0    12735      271      195      757     1018
-1
!Material Id = {EEC65B4B-7901-425D-913B-258B9B89F456}
/com,*********** Elements for Body 9 "Surface Body(Static Structural)(ACP (Pre))" ***********
et,9,181
keyo,9,1,0       ! bending and membrane stiffness
keyo,9,3,2
keyo,9,8,2       ! set Layer data storage
eblock,19,solid,,18
(19i9)
        9        9        9        9        0        0        0        0        4        0    12736     1008     1007     1006      999
        9        9        9        9        0        0        0        0        4        0    12737      999      361      362     1008
        9        9        9        9        0        0        0        0        4        0    12738     1006     1005     1000      999
        9        9        9        9        0        0        0        0        4        0    12739     1000      360      361      999
        9        9        9        9        0        0        0        0        4        0    12740     1005     1004     1001     1000
        9        9        9        9        0        0        0        0        4        0    12741     1001      359      360     1000
        9        9        9        9        0        0        0        0        4        0    12742     1004     1003     1002     1001
        9        9        9        9        0        0        0        0        4        0    12743     1002      358      359     1001
        9        9        9        9        0        0        0        0        4        0    12744     1003      746      745     1002
        9        9        9        9        0        0        0        0        4        0    12745      745      357      358     1002
        9        9        9        9        0        0        0        0        4        0    12746     1008      761      762     1007
        9        9        9        9        0        0        0        0        4        0    12747     1008      362      351      761
        9        9        9        9        0        0        0        0        4        0    12748     1003      763      744      746
        9        9        9        9        0        0        0        0        4        0    12749     1004      764      763     1003
        9        9        9        9        0        0        0        0        4        0    12750     1005      765      764     1004
        9        9        9        9        0        0        0        0        4        0    12751     1006      766      765     1005
        9        9        9        9        0        0        0        0        4        0    12752     1007      767      766     1006
        9        9        9        9        0        0        0        0        4        0    12753      762      760      767     1007
-1
!Material Id = {74FE0540-DF22-4B26-ACB8-100B0F315E79}
/com,*********** Elements for Body 10 "Surface Body(Static Structural)(ACP (Pre))" ***********
et,10,181
keyo,10,1,0       ! bending and membrane stiffness
keyo,10,3,2
keyo,10,8,2       ! set Layer data storage
eblock,19,solid,,18
(19i9)
       10       10       10       10        0        0        0        0        4        0    12754      989      993      998      997
       10       10       10       10        0        0        0        0        4        0    12755      997      996      990      989
       10       10       10       10        0        0        0        0        4        0    12756      989      355      356      993
       10       10       10       10        0        0        0        0        4        0    12757      990      354      355      989
       10       10       10       10        0        0        0        0        4        0    12758      996      995      991      990
       10       10       10       10        0        0        0        0        4        0    12759      991      353      354      990
       10       10       10       10        0        0        0        0        4        0    12760      995      994      992      991
       10       10       10       10        0        0        0        0        4        0    12761      992      352      353      991
       10       10       10       10        0        0        0        0        4        0    12762      992      761      351      352
       10       10       10       10        0        0        0        0        4        0    12763      994      762      761      992
       10       10       10       10        0        0        0        0        4        0    12764      993      769      770      998
       10       10       10       10        0        0        0        0        4        0    12765      993      356      345      769
       10       10       10       10        0        0        0        0        4        0    12766      994      771      760      762
       10       10       10       10        0        0        0        0        4        0    12767      995      772      771      994
       10       10       10       10        0        0        0        0        4        0    12768      996      773      772      995
       10       10       10       10        0        0        0        0        4        0    12769      997      774      773      996
       10       10       10       10        0        0        0        0        4        0    12770      998      775      774      997
       10       10       10       10        0        0        0        0        4        0    12771      770      768      775      998
-1
!Material Id = {2CFC7146-D2EC-4383-9460-7A2813F9677B}
/com,*********** Elements for Body 11 "Surface Body(Static Structural)(ACP (Pre))" ***********
et,11,181
keyo,11,1,0       ! bending and membrane stiffness
keyo,11,3,2
keyo,11,8,2       ! set Layer data storage
eblock,19,solid,,18
(19i9)
       11       11       11       11        0        0        0        0        4        0    12772      979      988      986      985
       11       11       11       11        0        0        0        0        4        0    12773      985      984      980      979
       11       11       11       11        0        0        0        0        4        0    12774      979      348      349      988
       11       11       11       11        0        0        0        0        4        0    12775      980      347      348      979
       11       11       11       11        0        0        0        0        4        0    12776      984      983      981      980
       11       11       11       11        0        0        0        0        4        0    12777      981      346      347      980
       11       11       11       11        0        0        0        0        4        0    12778      981      769      345      346
       11       11       11       11        0        0        0        0        4        0    12779      983      770      769      981
       11       11       11       11        0        0        0        0        4        0    12780      988      982      987      986
       11       11       11       11        0        0        0        0        4        0    12781      988      349      350      982
       11       11       11       11        0        0        0        0        4        0    12782      982      777      778      987
       11       11       11       11        0        0        0        0        4        0    12783      982      350      339      777
       11       11       11       11        0        0        0        0        4        0    12784      983      779      768      770
       11       11       11       11        0        0        0        0        4        0    12785      984      780      779      983
       11       11       11       11        0        0        0        0        4        0    12786      985      781      780      984
       11       11       11       11        0        0        0        0        4        0    12787      986      782      781      985
       11       11       11       11        0        0        0        0        4        0    12788      987      783      782      986
       11       11       11       11        0        0        0        0        4        0    12789      778      776      783      987
-1
!Material Id = {C978A1DB-3BB6-4914-94AC-EF539476B86E}
/com,*********** Elements for Body 12 "Surface Body(Static Structural)(ACP (Pre))" ***********
et,12,181
keyo,12,1,0       ! bending and membrane stiffness
keyo,12,3,2
keyo,12,8,2       ! set Layer data storage
eblock,19,solid,,18
(19i9)
       12       12       12       12        0        0        0        0        4        0    12790      969      978      976      975
       12       12       12       12        0        0        0        0        4        0    12791      975      974      970      969
       12       12       12       12        0        0        0        0        4        0    12792      969      342      343      978
       12       12       12       12        0        0        0        0        4        0    12793      970      341      342      969
       12       12       12       12        0        0        0        0        4        0    12794      974      973      971      970
       12       12       12       12        0        0        0        0        4        0    12795      971      340      341      970
       12       12       12       12        0        0        0        0        4        0    12796      973      778      777      971
       12       12       12       12        0        0        0        0        4        0    12797      777      339      340      971
       12       12       12       12        0        0        0        0        4        0    12798      978      972      977      976
       12       12       12       12        0        0        0        0        4        0    12799      978      343      344      972
       12       12       12       12        0        0        0        0        4        0    12800      972      785      786      977
       12       12       12       12        0        0        0        0        4        0    12801      972      344      333      785
       12       12       12       12        0        0        0        0        4        0    12802      973      787      776      778
       12       12       12       12        0        0        0        0        4        0    12803      974      788      787      973
       12       12       12       12        0        0        0        0        4        0    12804      975      789      788      974
       12       12       12       12        0        0        0        0        4        0    12805      976      790      789      975
       12       12       12       12        0        0        0        0        4        0    12806      977      791      790      976
       12       12       12       12        0        0        0        0        4        0    12807      786      784      791      977
-1
!Material Id = {B4CB6F95-C6FE-4396-AD75-E0B34C2F4C3A}
/com,*********** Elements for Body 13 "Surface Body(Static Structural)(ACP (Pre))" ***********
et,13,181
keyo,13,1,0       ! bending and membrane stiffness
keyo,13,3,2
keyo,13,8,2       ! set Layer data storage
eblock,19,solid,,18
(19i9)
       13       13       13       13        0        0        0        0        4        0    12808      959      963      968      967
       13       13       13       13        0        0        0        0        4        0    12809      967      966      960      959
       13       13       13       13        0        0        0        0        4        0    12810      959      337      338      963
       13       13       13       13        0        0        0        0        4        0    12811      960      336      337      959
       13       13       13       13        0        0        0        0        4        0    12812      966      965      961      960
       13       13       13       13        0        0        0        0        4        0    12813      961      335      336      960
       13       13       13       13        0        0        0        0        4        0    12814      965      964      962      961
       13       13       13       13        0        0        0        0        4        0    12815      962      334      335      961
       13       13       13       13        0        0        0        0        4        0    12816      962      785      333      334
       13       13       13       13        0        0        0        0        4        0    12817      964      786      785      962
       13       13       13       13        0        0        0        0        4        0    12818      963      793      794      968
       13       13       13       13        0        0        0        0        4        0    12819      963      338      327      793
       13       13       13       13        0        0        0        0        4        0    12820      964      795      784      786
       13       13       13       13        0        0        0        0        4        0    12821      965      796      795      964
       13       13       13       13        0        0        0        0        4        0    12822      966      797      796      965
       13       13       13       13        0        0        0        0        4        0    12823      967      798      797      966
       13       13       13       13        0        0        0        0        4        0    12824      968      799      798      967
       13       13       13       13        0        0        0        0        4        0    12825      794      792      799      968
-1
!Material Id = {30E3C315-56C2-42AD-84C4-27A46A1FEB53}
/com,*********** Elements for Body 14 "Surface Body(Static Structural)(ACP (Pre))" ***********
et,14,181
keyo,14,1,0       ! bending and membrane stiffness
keyo,14,3,2
keyo,14,8,2       ! set Layer data storage
eblock,19,solid,,18
(19i9)
       14       14       14       14        0        0        0        0        4        0    12826      949      958      957      956
       14       14       14       14        0        0        0        0        4        0    12827      956      955      950      949
       14       14       14       14        0        0        0        0        4        0    12828      949      331      332      958
       14       14       14       14        0        0        0        0        4        0    12829      950      330      331      949
       14       14       14       14        0        0        0        0        4        0    12830      955      954      951      950
       14       14       14       14        0        0        0        0        4        0    12831      951      329      330      950
       14       14       14       14        0        0        0        0        4        0    12832      954      953      952      951
       14       14       14       14        0        0        0        0        4        0    12833      952      328      329      951
       14       14       14       14        0        0        0        0        4        0    12834      952      793      327      328
       14       14       14       14        0        0        0        0        4        0    12835      953      794      793      952
       14       14       14       14        0        0        0        0        4        0    12836      953      803      792      794
       14       14       14       14        0        0        0        0        4        0    12837      954      804      803      953
       14       14       14       14        0        0        0        0        4        0    12838      955      805      804      954
       14       14       14       14        0        0        0        0        4        0    12839      956      806      805      955
       14       14       14       14        0        0        0        0        4        0    12840      957      807      806      956
       14       14       14       14        0        0        0        0        4        0    12841      958      801      802      957
       14       14       14       14        0        0        0        0        4        0    12842      802      800      807      957
       14       14       14       14        0        0        0        0        4        0    12843      958      332      321      801
-1
!Material Id = {F9D15B97-668A-42A3-90A5-F5EABB278889}
/com,*********** Elements for Body 15 "Surface Body(Static Structural)(ACP (Pre))" ***********
et,15,181
keyo,15,1,0       ! bending and membrane stiffness
keyo,15,3,2
keyo,15,8,2       ! set Layer data storage
eblock,19,solid,,18
(19i9)
       15       15       15       15        0        0        0        0        4        0    12844      939      943      948      947
       15       15       15       15        0        0        0        0        4        0    12845      947      946      940      939
       15       15       15       15        0        0        0        0        4        0    12846      939      325      326      943
       15       15       15       15        0        0        0        0        4        0    12847      940      324      325      939
       15       15       15       15        0        0        0        0        4        0    12848      946      945      941      940
       15       15       15       15        0        0        0        0        4        0    12849      941      323      324      940
       15       15       15       15        0        0        0        0        4        0    12850      945      944      942      941
       15       15       15       15        0        0        0        0        4        0    12851      942      322      323      941
       15       15       15       15        0        0        0        0        4        0    12852      942      801      321      322
       15       15       15       15        0        0        0        0        4        0    12853      944      802      801      942
       15       15       15       15        0        0        0        0        4        0    12854      943      809      810      948
       15       15       15       15        0        0        0        0        4        0    12855      943      326      315      809
       15       15       15       15        0        0        0        0        4        0    12856      944      811      800      802
       15       15       15       15        0        0        0        0        4        0    12857      945      812      811      944
       15       15       15       15        0        0        0        0        4        0    12858      946      813      812      945
       15       15       15       15        0        0        0        0        4        0    12859      947      814      813      946
       15       15       15       15        0        0        0        0        4        0    12860      948      815      814      947
       15       15       15       15        0        0        0        0        4        0    12861      810      808      815      948
-1
!Material Id = {A5579262-08B4-4CED-833C-805DAAC15E79}
/com,*********** Elements for Body 16 "Surface Body(Static Structural)(ACP (Pre))" ***********
et,16,181
keyo,16,1,0       ! bending and membrane stiffness
keyo,16,3,2
keyo,16,8,2       ! set Layer data storage
eblock,19,solid,,18
(19i9)
       16       16       16       16        0        0        0        0        4        0    12862      929      933      938      937
       16       16       16       16        0        0        0        0        4        0    12863      937      936      930      929
       16       16       16       16        0        0        0        0        4        0    12864      929      319      320      933
       16       16       16       16        0        0        0        0        4        0    12865      930      318      319      929
       16       16       16       16        0        0        0        0        4        0    12866      936      935      931      930
       16       16       16       16        0        0        0        0        4        0    12867      931      317      318      930
       16       16       16       16        0        0        0        0        4        0    12868      935      934      932      931
       16       16       16       16        0        0        0        0        4        0    12869      932      316      317      931
       16       16       16       16        0        0        0        0        4        0    12870      932      809      315      316
       16       16       16       16        0        0        0        0        4        0    12871      934      810      809      932
       16       16       16       16        0        0        0        0        4        0    12872      933      817      818      938
       16       16       16       16        0        0        0        0        4        0    12873      933      320      309      817
       16       16       16       16        0        0        0        0        4        0    12874      934      819      808      810
       16       16       16       16        0        0        0        0        4        0    12875      935      820      819      934
       16       16       16       16        0        0        0        0        4        0    12876      936      821      820      935
       16       16       16       16        0        0        0        0        4        0    12877      937      822      821      936
       16       16       16       16        0        0        0        0        4        0    12878      938      823      822      937
       16       16       16       16        0        0        0        0        4        0    12879      818      816      823      938
-1
!Material Id = {42A0C17D-A73B-4A8D-B5AD-B830A0DFA19C}
/com,*********** Elements for Body 17 "Surface Body(Static Structural)(ACP (Pre))" ***********
et,17,181
keyo,17,1,0       ! bending and membrane stiffness
keyo,17,3,2
keyo,17,8,2       ! set Layer data storage
eblock,19,solid,,18
(19i9)
       17       17       17       17        0        0        0        0        4        0    12880      919      928      927      926
       17       17       17       17        0        0        0        0        4        0    12881      926      925      920      919
       17       17       17       17        0        0        0        0        4        0    12882      919      313      314      928
       17       17       17       17        0        0        0        0        4        0    12883      920      312      313      919
       17       17       17       17        0        0        0        0        4        0    12884      925      924      921      920
       17       17       17       17        0        0        0        0        4        0    12885      921      311      312      920
       17       17       17       17        0        0        0        0        4        0    12886      924      923      922      921
       17       17       17       17        0        0        0        0        4        0    12887      922      310      311      921
       17       17       17       17        0        0        0        0        4        0    12888      922      817      309      310
       17       17       17       17        0        0        0        0        4        0    12889      923      818      817      922
       17       17       17       17        0        0        0        0        4        0    12890      923      827      816      818
       17       17       17       17        0        0        0        0        4        0    12891      924      828      827      923
       17       17       17       17        0        0        0        0        4        0    12892      925      829      828      924
       17       17       17       17        0        0        0        0        4        0    12893      926      830      829      925
       17       17       17       17        0        0        0        0        4        0    12894      928      825      826      927
       17       17       17       17        0        0        0        0        4        0    12895      927      831      830      926
       17       17       17       17        0        0        0        0        4        0    12896      826      824      831      927
       17       17       17       17        0        0        0        0        4        0    12897      928      314      303      825
-1
!Material Id = {650C2EE2-86ED-429F-80A3-FAF5181C8AC8}
/com,*********** Elements for Body 18 "Surface Body(Static Structural)(ACP (Pre))" ***********
et,18,181
keyo,18,1,0       ! bending and membrane stiffness
keyo,18,3,2
keyo,18,8,2       ! set Layer data storage
eblock,19,solid,,18
(19i9)
       18       18       18       18        0        0        0        0        4        0    12898      909      826      825      916
       18       18       18       18        0        0        0        0        4        0    12899      916      914      910      909
       18       18       18       18        0        0        0        0        4        0    12900      909      835      824      826
       18       18       18       18        0        0        0        0        4        0    12901      910      836      835      909
       18       18       18       18        0        0        0        0        4        0    12902      914      913      911      910
       18       18       18       18        0        0        0        0        4        0    12903      911      837      836      910
       18       18       18       18        0        0        0        0        4        0    12904      913      915      912      911
       18       18       18       18        0        0        0        0        4        0    12905      912      838      837      911
       18       18       18       18        0        0        0        0        4        0    12906      915      918      917      912
       18       18       18       18        0        0        0        0        4        0    12907      917      839      838      912
       18       18       18       18        0        0        0        0        4        0    12908      913      306      307      915
       18       18       18       18        0        0        0        0        4        0    12909      914      305      306      913
       18       18       18       18        0        0        0        0        4        0    12910      916      304      305      914
       18       18       18       18        0        0        0        0        4        0    12911      918      833      834      917
       18       18       18       18        0        0        0        0        4        0    12912      915      307      308      918
       18       18       18       18        0        0        0        0        4        0    12913      825      303      304      916
       18       18       18       18        0        0        0        0        4        0    12914      834      832      839      917
       18       18       18       18        0        0        0        0        4        0    12915      918      308      297      833
-1
!Material Id = {780C73CE-5174-4946-86BE-206A958EBB4B}
/com,*********** Elements for Body 19 "Surface Body(Static Structural)(ACP (Pre))" ***********
et,19,181
keyo,19,1,0       ! bending and membrane stiffness
keyo,19,3,2
keyo,19,8,2       ! set Layer data storage
eblock,19,solid,,18
(19i9)
       19       19       19       19        0        0        0        0        4        0    12916      899      902      907      906
       19       19       19       19        0        0        0        0        4        0    12917      906      905      900      899
       19       19       19       19        0        0        0        0        4        0    12918      899      300      301      902
       19       19       19       19        0        0        0        0        4        0    12919      900      299      300      899
       19       19       19       19        0        0        0        0        4        0    12920      905      904      901      900
       19       19       19       19        0        0        0        0        4        0    12921      901      298      299      900
       19       19       19       19        0        0        0        0        4        0    12922      901      833      297      298
       19       19       19       19        0        0        0        0        4        0    12923      904      834      833      901
       19       19       19       19        0        0        0        0        4        0    12924      902      903      908      907
       19       19       19       19        0        0        0        0        4        0    12925      902      301      302      903
       19       19       19       19        0        0        0        0        4        0    12926      903      841      842      908
       19       19       19       19        0        0        0        0        4        0    12927      903      302      291      841
       19       19       19       19        0        0        0        0        4        0    12928      904      843      832      834
       19       19       19       19        0        0        0        0        4        0    12929      905      844      843      904
       19       19       19       19        0        0        0        0        4        0    12930      906      845      844      905
       19       19       19       19        0        0        0        0        4        0    12931      907      846      845      906
       19       19       19       19        0        0        0        0        4        0    12932      908      847      846      907
       19       19       19       19        0        0        0        0        4        0    12933      842      840      847      908
-1
!Material Id = {BAAB1CC4-B226-4F7B-9EDF-59617425D971}
/com,*********** Elements for Body 20 "Surface Body(Static Structural)(ACP (Pre))" ***********
et,20,181
keyo,20,1,0       ! bending and membrane stiffness
keyo,20,3,2
keyo,20,8,2       ! set Layer data storage
eblock,19,solid,,18
(19i9)
       20       20       20       20        0        0        0        0        4        0    12934      889      842      841      896
       20       20       20       20        0        0        0        0        4        0    12935      896      895      890      889
       20       20       20       20        0        0        0        0        4        0    12936      889      851      840      842
       20       20       20       20        0        0        0        0        4        0    12937      890      852      851      889
       20       20       20       20        0        0        0        0        4        0    12938      895      894      891      890
       20       20       20       20        0        0        0        0        4        0    12939      891      853      852      890
       20       20       20       20        0        0        0        0        4        0    12940      894      893      892      891
       20       20       20       20        0        0        0        0        4        0    12941      892      854      853      891
       20       20       20       20        0        0        0        0        4        0    12942      893      898      897      892
       20       20       20       20        0        0        0        0        4        0    12943      897      855      854      892
       20       20       20       20        0        0        0        0        4        0    12944      893      295      296      898
       20       20       20       20        0        0        0        0        4        0    12945      894      294      295      893
       20       20       20       20        0        0        0        0        4        0    12946      895      293      294      894
       20       20       20       20        0        0        0        0        4        0    12947      896      292      293      895
       20       20       20       20        0        0        0        0        4        0    12948      898      849      850      897
       20       20       20       20        0        0        0        0        4        0    12949      841      291      292      896
       20       20       20       20        0        0        0        0        4        0    12950      850      848      855      897
       20       20       20       20        0        0        0        0        4        0    12951      898      296      285      849
-1
!Material Id = {39AA9C24-74A3-423B-AC37-5F34D54C6D6A}
/com,*********** Elements for Body 21 "Surface Body(Static Structural)(ACP (Pre))" ***********
et,21,181
keyo,21,1,0       ! bending and membrane stiffness
keyo,21,3,2
keyo,21,8,2       ! set Layer data storage
eblock,19,solid,,18
(19i9)
       21       21       21       21        0        0        0        0        4        0    12952      879      888      887      886
       21       21       21       21        0        0        0        0        4        0    12953      886      885      880      879
       21       21       21       21        0        0        0        0        4        0    12954      879      289      290      888
       21       21       21       21        0        0        0        0        4        0    12955      880      288      289      879
       21       21       21       21        0        0        0        0        4        0    12956      885      884      881      880
       21       21       21       21        0        0        0        0        4        0    12957      881      287      288      880
       21       21       21       21        0        0        0        0        4        0    12958      884      883      882      881
       21       21       21       21        0        0        0        0        4        0    12959      882      286      287      881
       21       21       21       21        0        0        0        0        4        0    12960      882      849      285      286
       21       21       21       21        0        0        0        0        4        0    12961      883      850      849      882
       21       21       21       21        0        0        0        0        4        0    12962      883      859      848      850
       21       21       21       21        0        0        0        0        4        0    12963      884      860      859      883
       21       21       21       21        0        0        0        0        4        0    12964      885      861      860      884
       21       21       21       21        0        0        0        0        4        0    12965      886      862      861      885
       21       21       21       21        0        0        0        0        4        0    12966      887      863      862      886
       21       21       21       21        0        0        0        0        4        0    12967      888      857      858      887
       21       21       21       21        0        0        0        0        4        0    12968      858      856      863      887
       21       21       21       21        0        0        0        0        4        0    12969      888      290      279      857
-1
!Material Id = {0396A094-8659-4C10-9EA5-5EAFD96FB159}
/com,*********** Elements for Body 22 "Surface Body(Static Structural)(ACP (Pre))" ***********
et,22,181
keyo,22,1,0       ! bending and membrane stiffness
keyo,22,3,2
keyo,22,8,2       ! set Layer data storage
eblock,19,solid,,18
(19i9)
       22       22       22       22        0        0        0        0        4        0    12970      869      872      877      876
       22       22       22       22        0        0        0        0        4        0    12971      876      875      870      869
       22       22       22       22        0        0        0        0        4        0    12972      869      282      283      872
       22       22       22       22        0        0        0        0        4        0    12973      870      281      282      869
       22       22       22       22        0        0        0        0        4        0    12974      875      874      871      870
       22       22       22       22        0        0        0        0        4        0    12975      871      280      281      870
       22       22       22       22        0        0        0        0        4        0    12976      874      858      857      871
       22       22       22       22        0        0        0        0        4        0    12977      857      279      280      871
       22       22       22       22        0        0        0        0        4        0    12978      872      873      878      877
       22       22       22       22        0        0        0        0        4        0    12979      872      283      284      873
       22       22       22       22        0        0        0        0        4        0    12980      873      759      758      878
       22       22       22       22        0        0        0        0        4        0    12981      873      284      273      759
       22       22       22       22        0        0        0        0        4        0    12982      874      864      856      858
       22       22       22       22        0        0        0        0        4        0    12983      875      865      864      874
       22       22       22       22        0        0        0        0        4        0    12984      876      866      865      875
       22       22       22       22        0        0        0        0        4        0    12985      877      867      866      876
       22       22       22       22        0        0        0        0        4        0    12986      878      868      867      877
       22       22       22       22        0        0        0        0        4        0    12987      758      752      868      878
-1
!Material Id = {6AF47BBF-5506-4F71-870A-0FF4A9FBCDED}
/wb,elem,end               !  done creating elements
/com,*********** Send User Defined Coordinate System(s) ***********
local,12,0,0.,0.,0.,0.,0.,0.
csys,0
toffst,459.67,  ! Temperature offset from absolute zero
/com,*********** Set Reference Temperature ***********
tref,71.6
/wb,mat,start              !  starting to send materials
/com,*********** Send Materials ***********
MP,DENS,1,0.000108544154361823,	! slinch in^-3
MP,EX,1,548242.648559366,	! slinch s^-2 in^-1
MP,NUXY,1,0.35,
MP,UVID,1,775afd3a-b97b-4650-912b-640c60fc3e83

MP,DENS,2,0.000108544154361823,	! slinch in^-3
MP,EX,2,548242.648559366,	! slinch s^-2 in^-1
MP,NUXY,2,0.35,
MP,UVID,2,775afd3a-b97b-4650-912b-640c60fc3e83

MP,DENS,3,0.000108544154361823,	! slinch in^-3
MP,EX,3,548242.648559366,	! slinch s^-2 in^-1
MP,NUXY,3,0.35,
MP,UVID,3,775afd3a-b97b-4650-912b-640c60fc3e83

MP,DENS,4,0.000108544154361823,	! slinch in^-3
MP,EX,4,548242.648559366,	! slinch s^-2 in^-1
MP,NUXY,4,0.35,
MP,UVID,4,775afd3a-b97b-4650-912b-640c60fc3e83

MP,DENS,5,0.000108544154361823,	! slinch in^-3
MP,EX,5,548242.648559366,	! slinch s^-2 in^-1
MP,NUXY,5,0.35,
MP,UVID,5,775afd3a-b97b-4650-912b-640c60fc3e83

MP,DENS,6,0.000108544154361823,	! slinch in^-3
MP,EX,6,548242.648559366,	! slinch s^-2 in^-1
MP,NUXY,6,0.35,
MP,UVID,6,775afd3a-b97b-4650-912b-640c60fc3e83

MP,DENS,7,0.000108544154361823,	! slinch in^-3
MP,EX,7,548242.648559366,	! slinch s^-2 in^-1
MP,NUXY,7,0.35,
MP,UVID,7,775afd3a-b97b-4650-912b-640c60fc3e83

MP,DENS,8,0.000108544154361823,	! slinch in^-3
MP,EX,8,548242.648559366,	! slinch s^-2 in^-1
MP,NUXY,8,0.35,
MP,UVID,8,775afd3a-b97b-4650-912b-640c60fc3e83

MP,DENS,9,0.000108544154361823,	! slinch in^-3
MP,EX,9,548242.648559366,	! slinch s^-2 in^-1
MP,NUXY,9,0.35,
MP,UVID,9,775afd3a-b97b-4650-912b-640c60fc3e83

MP,DENS,10,0.000108544154361823,	! slinch in^-3
MP,EX,10,548242.648559366,	! slinch s^-2 in^-1
MP,NUXY,10,0.35,
MP,UVID,10,775afd3a-b97b-4650-912b-640c60fc3e83

MP,DENS,11,0.000108544154361823,	! slinch in^-3
MP,EX,11,548242.648559366,	! slinch s^-2 in^-1
MP,NUXY,11,0.35,
MP,UVID,11,775afd3a-b97b-4650-912b-640c60fc3e83

MP,DENS,12,0.000108544154361823,	! slinch in^-3
MP,EX,12,548242.648559366,	! slinch s^-2 in^-1
MP,NUXY,12,0.35,
MP,UVID,12,775afd3a-b97b-4650-912b-640c60fc3e83

MP,DENS,13,0.000108544154361823,	! slinch in^-3
MP,EX,13,548242.648559366,	! slinch s^-2 in^-1
MP,NUXY,13,0.35,
MP,UVID,13,775afd3a-b97b-4650-912b-640c60fc3e83

MP,DENS,14,0.000108544154361823,	! slinch in^-3
MP,EX,14,548242.648559366,	! slinch s^-2 in^-1
MP,NUXY,14,0.35,
MP,UVID,14,775afd3a-b97b-4650-912b-640c60fc3e83

MP,DENS,15,0.000108544154361823,	! slinch in^-3
MP,EX,15,548242.648559366,	! slinch s^-2 in^-1
MP,NUXY,15,0.35,
MP,UVID,15,775afd3a-b97b-4650-912b-640c60fc3e83

MP,DENS,16,0.000108544154361823,	! slinch in^-3
MP,EX,16,548242.648559366,	! slinch s^-2 in^-1
MP,NUXY,16,0.35,
MP,UVID,16,775afd3a-b97b-4650-912b-640c60fc3e83

MP,DENS,17,0.000108544154361823,	! slinch in^-3
MP,EX,17,548242.648559366,	! slinch s^-2 in^-1
MP,NUXY,17,0.35,
MP,UVID,17,775afd3a-b97b-4650-912b-640c60fc3e83

MP,DENS,18,0.000108544154361823,	! slinch in^-3
MP,EX,18,548242.648559366,	! slinch s^-2 in^-1
MP,NUXY,18,0.35,
MP,UVID,18,775afd3a-b97b-4650-912b-640c60fc3e83

MP,DENS,19,0.000108544154361823,	! slinch in^-3
MP,EX,19,548242.648559366,	! slinch s^-2 in^-1
MP,NUXY,19,0.35,
MP,UVID,19,775afd3a-b97b-4650-912b-640c60fc3e83

MP,DENS,20,0.000108544154361823,	! slinch in^-3
MP,EX,20,548242.648559366,	! slinch s^-2 in^-1
MP,NUXY,20,0.35,
MP,UVID,20,775afd3a-b97b-4650-912b-640c60fc3e83

MP,DENS,21,0.000108544154361823,	! slinch in^-3
MP,EX,21,548242.648559366,	! slinch s^-2 in^-1
MP,NUXY,21,0.35,
MP,UVID,21,775afd3a-b97b-4650-912b-640c60fc3e83

MP,DENS,22,0.000108544154361823,	! slinch in^-3
MP,EX,22,548242.648559366,	! slinch s^-2 in^-1
MP,NUXY,22,0.35,
MP,UVID,22,775afd3a-b97b-4650-912b-640c60fc3e83

/wb,mat,end                !  done sending materials
/com,*********** Send Sheet Properties ***********
sectype,1,shell
secdata,0.295
secoff,mid

sectype,2,shell
secdata,0.295
secoff,mid

sectype,3,shell
secdata,0.295
secoff,mid

sectype,4,shell
secdata,0.295
secoff,mid

sectype,5,shell
secdata,0.295
secoff,mid

sectype,6,shell
secdata,0.295
secoff,mid

sectype,7,shell
secdata,0.295
secoff,mid

sectype,8,shell
secdata,0.295
secoff,mid

sectype,9,shell
secdata,0.295
secoff,mid

sectype,10,shell
secdata,0.295
secoff,mid

sectype,11,shell
secdata,0.295
secoff,mid

sectype,12,shell
secdata,0.295
secoff,mid

sectype,13,shell
secdata,0.295
secoff,mid

sectype,14,shell
secdata,0.295
secoff,mid

sectype,15,shell
secdata,0.295
secoff,mid

sectype,16,shell
secdata,0.295
secoff,mid

sectype,17,shell
secdata,0.295
secoff,mid

sectype,18,shell
secdata,0.295
secoff,mid

sectype,19,shell
secdata,0.295
secoff,mid

sectype,20,shell
secdata,0.295
secoff,mid

sectype,21,shell
secdata,0.295
secoff,mid

sectype,22,shell
secdata,0.295
secoff,mid


/com,*********** Sending Coordinate Systems for External Layered Section***********
local,13,0,282.01354941,-107.869634577,5.5693730697,-89.9723346323217,-1.42837924960813e-003,87.0741050625691
local,14,0,282.02421126,-107.609493426,9.3510109416,-90.0011793906623,1.02486266314148e-004,85.0762971247332
local,15,0,282.02281125,-107.216353224,13.1405655117,-89.9824630352672,-2.1493515059199e-003,83.0675361914579
local,16,0,282.04500033,-106.690731075,16.909544502,-89.9936481222304,-1.0067168774113e-003,81.0621203808664
local,17,0,278.02103814,-106.051301526,20.574625893,-90.0059745201204,1.15909483812911e-003,79.1004250909496
local,18,0,282.00078738,-107.99649687,1.820475981813,-89.9907570051003,-1.55807369841986e-004,89.0499930389689
local,19,0,202.634259,96.647504104,47.767579632,-89.8662728958834,6.6093910247419e-002,-63.9001625416515
local,20,0,228.88303953,-100.409270667,39.966873066,-89.867426634969,-5.27693965989319e-002,68.4787051763456
local,21,0,226.65541527,-99.746185227,41.590948884,-90.0027751171447,1.15713453089203e-003,67.4795717545967
local,22,0,228.86385354,-99.198676092,42.897228426,-89.881027846321,-5.14479710276214e-002,66.6677145682644
local,23,0,203.80820451,99.18211116,42.188612931,-90.0536681020292,-2.2828535365951e-002,-67.0963287746958
local,24,0,203.48502939,97.714142025,45.505465209,-90.100069289817,-4.66022233077141e-002,-65.1197936570739
local,25,0,227.83590981,-101.596901385,36.811927107,-90.0180016652358,6.52260025320705e-003,70.1682891477778
local,26,0,225.09171354,-100.796307276,38.938087377,-90.0142338526429,5.49860412049195e-003,69.1191727874271
local,27,0,222.99008853,-101.556912369,36.922844322,-89.9277107374953,-2.62820543474331e-002,70.0758375018122
local,28,0,203.34895599,-104.667961605,26.815156911,-90.0050119294691,1.2840192253321e-003,75.7039886345882
local,29,0,203.19084747,-103.763512389,30.144800133,-90.0155808499043,4.5264620355214e-003,73.8820677450909
local,30,0,199.41141093,-102.696621711,33.612889419,-90.0194708014554,6.37284722728517e-003,71.9601708686754
local,31,0,214.03669578,-98.271764652,44.987668917,-90.0405780278699,1.85761461903138e-002,65.5148848334455
local,32,0,214.54568523,-96.830584653,48.025398273,-90.0367831506198,1.82434639172861e-002,63.7088914748968
! ... 1294 like lines cut
csys,0

/com,*********** Sending Materials for External Layered Section***********
MP,DENS,23,0.000139423094826824,	! slinch in^-3
MP,EX,23,17549566.2634083,	! slinch s^-2 in^-1
MP,EY,23,1247324.54434141,	! slinch s^-2 in^-1
MP,EZ,23,1247324.54434141,	! slinch s^-2 in^-1
MP,PRXY,23,0.27,
MP,PRYZ,23,0.4,
MP,PRXZ,23,0.27,
MP,GXY,23,681677.367256354,	! slinch s^-2 in^-1
MP,GYZ,23,449616.986913766,	! slinch s^-2 in^-1
MP,GXZ,23,681677.367256354,	! slinch s^-2 in^-1

TB,FCLI,23,1,9,2
TBDATA,1,0.0167,-0.0108,0.0032,-0.0192,0.0032,-0.0192
TBDATA,7,0.012,0.011,0.012
MP,ALPX,23,-2.61111111111111e-07,	! F^-1
MP,ALPY,23,1.66666666666667e-05,	! F^-1
MP,ALPZ,23,1.66666666666667e-05,	! F^-1

TB,FCLI,23,1,20,1
TBDATA,1,323579.192840197
TBDATA,2,-156930.832206676
TBDATA,3,4206.09439370942
TBDATA,4,-14503.7737714118
TBDATA,5,4206.09439370942
TBDATA,6,-14503.7737714118
TBDATA,7,8702.26426284708
TBDATA,8,4641.20760685178
TBDATA,9,8702.26426284708
TBDATA,10,-1
TBDATA,11,-1
TBDATA,12,-1
TBDATA,13,0.35
TBDATA,14,0.3
TBDATA,15,0.25
TBDATA,16,0.25
MP,UVID,23,c51b7155-3858-47d3-b896-0a77589153b0

MP,DENS,24,0.000108544154361823,	! slinch in^-3
MP,EX,24,548242.648559366,	! slinch s^-2 in^-1
MP,NUXY,24,0.35,
MP,UVID,24,775afd3a-b97b-4650-912b-640c60fc3e83


/com,*********** Send External Layered Section Properties ***********
CMBLOCK,_CM_EXT_SEC_0,ELEM,    12987
(8i10)
         1         2         3         4         5         6         7         8
         9        10        11        12        13        14        15        16
        17        18        19        20        21        22        23        24
        25        26        27        28        29        30        31        32
        33        34        35        36        37        38        39        40
        41        42        43        44        45        46        47        48
        49        50        51        52        53        54        55        56
        57        58        59        60        61        62        63        64
        65        66        67        68        69        70        71        72
        73        74        75        76        77        78        79        80
        81        82        83        84        85        86        87        88
        89        90        91        92        93        94        95        96
        97        98        99       100       101       102       103       104
       105       106       107       108       109       110       111       112
       113       114       115       116       117       118       119       120
       121       122       123       124       125       126       127       128
       129       130       131       132       133       134       135       136
       137       138       139       140       141       142       143       144
       145       146       147       148       149       150       151       152
       153       154       155       156       157       158       159       160
! ... 1604 like lines cut
sectype,25,shell
secdata,0.00787402,23,-45
secdata,0.00787402,23,45
secdata,0.00787402,23,90
secdata,0.00787402,23,-45
secdata,0.00787402,23,45
secdata,0.00787402,23,-45
secdata,0.00787402,23,45
secdata,0.00787402,23,90
secdata,0.00787402,23,-45
secdata,0.00787402,23,45
secdata,0.826772,24,1.19611e-16
secdata,0.826772,24,1.19611e-16
secdata,0.00787402,23,90
secdata,0.00787402,23,90
secdata,0.00787402,23,90
secoff,bottom
emod,_cm_ext_sec_0,secnum,25
emod,1,esys,13
emod,2,esys,13
emod,3,esys,14
emod,4,esys,14
emod,5,esys,15
emod,6,esys,15
emod,7,esys,16
emod,8,esys,16
emod,9,esys,17
emod,10,esys,17
emod,11,esys,18
emod,12,esys,18
emod,13,esys,17
emod,14,esys,16
emod,15,esys,15
emod,16,esys,14
emod,17,esys,13
emod,18,esys,18
emod,19,esys,19
emod,20,esys,20
! ... 12967 like lines cut

!************************* Model Summary ********************
!Surface Body(Static Structural)(ACP (Pre)),	Resin Epoxy,	matid,	1
!Surface Body(Static Structural)(ACP (Pre)),	Resin Epoxy,	matid,	2
!Surface Body(Static Structural)(ACP (Pre)),	Resin Epoxy,	matid,	3
!Surface Body(Static Structural)(ACP (Pre)),	Resin Epoxy,	matid,	4
!Surface Body(Static Structural)(ACP (Pre)),	Resin Epoxy,	matid,	5
!Surface Body(Static Structural)(ACP (Pre)),	Resin Epoxy,	matid,	6
!Surface Body(Static Structural)(ACP (Pre)),	Resin Epoxy,	matid,	7
!Surface Body(Static Structural)(ACP (Pre)),	Resin Epoxy,	matid,	8
!Surface Body(Static Structural)(ACP (Pre)),	Resin Epoxy,	matid,	9
!Surface Body(Static Structural)(ACP (Pre)),	Resin Epoxy,	matid,	10
!Surface Body(Static Structural)(ACP (Pre)),	Resin Epoxy,	matid,	11
!Surface Body(Static Structural)(ACP (Pre)),	Resin Epoxy,	matid,	12
!Surface Body(Static Structural)(ACP (Pre)),	Resin Epoxy,	matid,	13
!Surface Body(Static Structural)(ACP (Pre)),	Resin Epoxy,	matid,	14
!Surface Body(Static Structural)(ACP (Pre)),	Resin Epoxy,	matid,	15
!Surface Body(Static Structural)(ACP (Pre)),	Resin Epoxy,	matid,	16
!Surface Body(Static Structural)(ACP (Pre)),	Resin Epoxy,	matid,	17
!Surface Body(Static Structural)(ACP (Pre)),	Resin Epoxy,	matid,	18
!Surface Body(Static Structural)(ACP (Pre)),	Resin Epoxy,	matid,	19
!Surface Body(Static Structural)(ACP (Pre)),	Resin Epoxy,	matid,	20
!Surface Body(Static Structural)(ACP (Pre)),	Resin Epoxy,	matid,	21
!Surface Body(Static Structural)(ACP (Pre)),	Resin Epoxy,	matid,	22
!************************* End Model Summary ********************
! get the diagonal of the bounding box. Needed later for other things
*get,_xmin,node,,mnloc,x
*get,_ymin,node,,mnloc,y
*get,_zmin,node,,mnloc,z
*get,_xmax,node,,mxloc,x
*get,_ymax,node,,mxloc,y
*get,_zmax,node,,mxloc,z
_ASMDIAG=(_xmax-_xmin)*(_xmax-_xmin)+(_ymax-_ymin)*(_ymax-_ymin)+(_zmax-_zmin)*(_zmax-_zmin)
_ASMDIAG=SQRT(_ASMDIAG)
/wb,contact,start          !  starting to send contact
/wb,contact,end            !  done creating contacts
CMBLOCK,_CM_EXT_SEC_0_STATIC_STRUCTURAL_,ELEM,    12987
(8i10)
         1         2         3         4         5         6         7         8
         9        10        11        12        13        14        15        16
        17        18        19        20        21        22        23        24
        25        26        27        28        29        30        31        32
        33        34        35        36        37        38        39        40
        41        42        43        44        45        46        47        48
        49        50        51        52        53        54        55        56
        57        58        59        60        61        62        63        64
        65        66        67        68        69        70        71        72
        73        74        75        76        77        78        79        80
        81        82        83        84        85        86        87        88
        89        90        91        92        93        94        95        96
        97        98        99       100       101       102       103       104
       105       106       107       108       109       110       111       112
       113       114       115       116       117       118       119       120
       121       122       123       124       125       126       127       128
       129       130       131       132       133       134       135       136
       137       138       139       140       141       142       143       144
       145       146       147       148       149       150       151       152
       153       154       155       156       157       158       159       160
! ... 1604 like lines cut
/com,*********** Send Named Selection as Node Component ***********
CMBLOCK,CM_FUSELAGE_EDGE,NODE,      177
(8i10)
         1         2         3         4         5         6         7       195
       196       197       198       199       200       201       202       203
       204       205       206       207       208       209       210       211
       212       213       214       215       216       217       218       219
       220       221       222       223       224       225       226       227
       228       229       230       231       232       233       234       235
       236       237       238       239       240       241       242       243
       244       245       246       247       248       249       250       251
       252       253       254       255       256       257       258       259
       260       261       262       263       264       265       266       267
       268       269       744       747       748       749       750       751
       752       753       754       755       756       757       760       763
       764       765       766       767       768       771       772       773
       774       775       776       779       780       781       782       783
       784       787       788       789       790       791       792       795
       796       797       798       799       800       803       804       805
       806       807       808       811       812       813       814       815
       816       819       820       821       822       823       824       827
       828       829       830       831       832       835       836       837
       838       839       840       843       844       845       846       847
       848       851       852       853       854       855       856       859
       860       861       862       863       864       865       866       867
       868
/golist
/wb,load,start             !  starting to send loads
/com,******* Constant Zero Displacement X *******
CMBLOCK,_DISPZEROUX,NODE,      392
(8i10)
         8        11        19        21        22        23        24        25
        26        27        28        29        30        31        32        33
        34        35        36        37        38        39        40        41
        42        43        44        45        46        47        48        49
        50        51        52        53        54        55        56        57
        58        59        60        61        62        63        64        65
        66        67        68        69        70        71        72        73
        74        75        76        77        78        79        80        81
        82        83        84        85        86        87        88        89
        90        91        92        93        94        95        96        97
        98        99       100       101       102       103       104       105
       106       107       108       109       110       111       112       113
       114       115       116       117       118       119       120       121
       122       123       124       125       126       127       128       129
       130       131       132       133       134       135       136       137
       138       139       140       141       142       143       144       145
       146       147       148       149       150       151       152       153
       154       155       156       157       158       159       160       161
       162       163       164       165       166       167       168       169
       170       171       172       173       174       175       176       177
! ... 29 like lines cut

cmsel,s,_DISPZEROUX
d,all,ux,0
nsel,all
/com,******* Constant Zero Displacement Y *******
CMBLOCK,_DISPZEROUY,NODE,       44
(8i10)
       368       369       370       371       372       373       374       375
       376       377       378       379       380       381       382       383
       384       385       386       387       388       389       390       391
       392       393      1047      1048      1049      1050      1051      1052
      1053      1054      1055      1056      1057      1058      1059      1060
      1061      1062      1063      1064
cmsel,s,_DISPZEROUY
d,all,uy,0
nsel,all
/com,******* Constant Zero Displacement Z *******
CMBLOCK,_DISPZEROUZ,NODE,       88
(8i10)
        19        20        21       185       186       187       188       189
       190       191       192       193       194       368       369       370
       371       372       373       374       375       376       377       378
       379       380       381       382       383       384       385       386
       387       388       389       390       391       392       393       568
       569       733       734       735       736       737       738       739
       740       741       742       743      1029      1030      1031      1032
      1033      1034      1035      1036      1037      1038      1039      1040
      1041      1042      1043      1044      1045      1046      1047      1048
      1049      1050      1051      1052      1053      1054      1055      1056
      1057      1058      1059      1060      1061      1062      1063      1064

cmsel,s,_DISPZEROUZ
d,all,uz,0
nsel,all
/com,*********** Define Vertex Force Using Follower Elements ***********
et,27,201
keyo,27,1,1           ! Keep the direction constant
keyo,27,2,1           ! Apply Forces only, not moment
mat,27
real,27
type,27
en,12988,270
r,27
rmod,27,1,1.0,              ! FX
mat,28
real,28
type,27
en,12989,270
r,28
rmod,28,2,1.0,              ! FY
mat,29
real,29
type,27
en,12990,270
r,29
rmod,29,3,1.0,              ! FZ
/com,*********** Define Vertex Force Using Follower Elements ***********
et,30,201
keyo,30,1,1           ! Keep the direction constant
keyo,30,2,1           ! Apply Forces only, not moment
mat,30
real,30
type,30
en,12991,273
r,30
rmod,30,1,1.0,              ! FX
mat,31
real,31
type,30
en,12992,273
r,31
rmod,31,2,1.0,              ! FY
mat,32
real,32
type,30
en,12993,273
r,32
rmod,32,3,1.0,              ! FZ
/com,*********** Define Vertex Force Using Follower Elements ***********
et,33,201
keyo,33,1,1           ! Keep the direction constant
keyo,33,2,1           ! Apply Forces only, not moment
mat,33
real,33
type,33
en,12994,279
r,33
rmod,33,1,1.0,              ! FX
mat,34
real,34
type,33
en,12995,279
r,34
rmod,34,2,1.0,              ! FY
mat,35
real,35
type,33
en,12996,279
r,35
rmod,35,3,1.0,              ! FZ
/com,*********** Define Vertex Force Using Follower Elements ***********
et,36,201
keyo,36,1,1           ! Keep the direction constant
keyo,36,2,1           ! Apply Forces only, not moment
mat,36
real,36
type,36
en,12997,285
r,36
rmod,36,1,1.0,              ! FX
mat,37
real,37
type,36
en,12998,285
r,37
rmod,37,2,1.0,              ! FY
mat,38
real,38
type,36
en,12999,285
r,38
rmod,38,3,1.0,              ! FZ
/com,*********** Define Vertex Force Using Follower Elements ***********
et,39,201
keyo,39,1,1           ! Keep the direction constant
keyo,39,2,1           ! Apply Forces only, not moment
mat,39
real,39
type,39
en,13000,291
r,39
rmod,39,1,1.0,              ! FX
mat,40
real,40
type,39
en,13001,291
r,40
rmod,40,2,1.0,              ! FY
mat,41
real,41
type,39
en,13002,291
r,41
rmod,41,3,1.0,              ! FZ
/com,*********** Define Vertex Force Using Follower Elements ***********
et,42,201
keyo,42,1,1           ! Keep the direction constant
keyo,42,2,1           ! Apply Forces only, not moment
mat,42
real,42
type,42
en,13003,297
r,42
rmod,42,1,1.0,              ! FX
mat,43
real,43
type,42
en,13004,297
r,43
rmod,43,2,1.0,              ! FY
mat,44
real,44
type,42
en,13005,297
r,44
rmod,44,3,1.0,              ! FZ
/com,*********** Define Vertex Force Using Follower Elements ***********
et,45,201
keyo,45,1,1           ! Keep the direction constant
keyo,45,2,1           ! Apply Forces only, not moment
mat,45
real,45
type,45
en,13006,303
r,45
rmod,45,1,1.0,              ! FX
mat,46
real,46
type,45
en,13007,303
r,46
rmod,46,2,1.0,              ! FY
mat,47
real,47
type,45
en,13008,303
r,47
rmod,47,3,1.0,              ! FZ
/com,*********** Define Vertex Force Using Follower Elements ***********
et,48,201
keyo,48,1,1           ! Keep the direction constant
keyo,48,2,1           ! Apply Forces only, not moment
mat,48
real,48
type,48
en,13009,309
r,48
rmod,48,1,1.0,              ! FX
mat,49
real,49
type,48
en,13010,309
r,49
rmod,49,2,1.0,              ! FY
mat,50
real,50
type,48
en,13011,309
r,50
rmod,50,3,1.0,              ! FZ
/com,*********** Define Vertex Force Using Follower Elements ***********
et,51,201
keyo,51,1,1           ! Keep the direction constant
keyo,51,2,1           ! Apply Forces only, not moment
mat,51
real,51
type,51
en,13012,315
r,51
rmod,51,1,1.0,              ! FX
mat,52
real,52
type,51
en,13013,315
r,52
rmod,52,2,1.0,              ! FY
mat,53
real,53
type,51
en,13014,315
r,53
rmod,53,3,1.0,              ! FZ
/com,*********** Define Vertex Force Using Follower Elements ***********
et,54,201
keyo,54,1,1           ! Keep the direction constant
keyo,54,2,1           ! Apply Forces only, not moment
mat,54
real,54
type,54
en,13015,321
r,54
rmod,54,1,1.0,              ! FX
mat,55
real,55
type,54
en,13016,321
r,55
rmod,55,2,1.0,              ! FY
mat,56
real,56
type,54
en,13017,321
r,56
rmod,56,3,1.0,              ! FZ
/com,*********** Define Vertex Force Using Follower Elements ***********
et,57,201
keyo,57,1,1           ! Keep the direction constant
keyo,57,2,1           ! Apply Forces only, not moment
mat,57
real,57
type,57
en,13018,327
r,57
rmod,57,1,1.0,              ! FX
mat,58
real,58
type,57
en,13019,327
r,58
rmod,58,2,1.0,              ! FY
mat,59
real,59
type,57
en,13020,327
r,59
rmod,59,3,1.0,              ! FZ
/com,*********** Define Vertex Force Using Follower Elements ***********
et,60,201
keyo,60,1,1           ! Keep the direction constant
keyo,60,2,1           ! Apply Forces only, not moment
mat,60
real,60
type,60
en,13021,333
r,60
rmod,60,1,1.0,              ! FX
mat,61
real,61
type,60
en,13022,333
r,61
rmod,61,2,1.0,              ! FY
mat,62
real,62
type,60
en,13023,333
r,62
rmod,62,3,1.0,              ! FZ
/com,*********** Define Vertex Force Using Follower Elements ***********
et,63,201
keyo,63,1,1           ! Keep the direction constant
keyo,63,2,1           ! Apply Forces only, not moment
mat,63
real,63
type,63
en,13024,339
r,63
rmod,63,1,1.0,              ! FX
mat,64
real,64
type,63
en,13025,339
r,64
rmod,64,2,1.0,              ! FY
mat,65
real,65
type,63
en,13026,339
r,65
rmod,65,3,1.0,              ! FZ
/com,*********** Define Vertex Force Using Follower Elements ***********
et,66,201
keyo,66,1,1           ! Keep the direction constant
keyo,66,2,1           ! Apply Forces only, not moment
mat,66
real,66
type,66
en,13027,345
r,66
rmod,66,1,1.0,              ! FX
mat,67
real,67
type,66
en,13028,345
r,67
rmod,67,2,1.0,              ! FY
mat,68
real,68
type,66
en,13029,345
r,68
rmod,68,3,1.0,              ! FZ
/com,*********** Define Vertex Force Using Follower Elements ***********
et,69,201
keyo,69,1,1           ! Keep the direction constant
keyo,69,2,1           ! Apply Forces only, not moment
mat,69
real,69
type,69
en,13030,351
r,69
rmod,69,1,1.0,              ! FX
mat,70
real,70
type,69
en,13031,351
r,70
rmod,70,2,1.0,              ! FY
mat,71
real,71
type,69
en,13032,351
r,71
rmod,71,3,1.0,              ! FZ
/com,*********** Define Vertex Force Using Follower Elements ***********
et,72,201
keyo,72,1,1           ! Keep the direction constant
keyo,72,2,1           ! Apply Forces only, not moment
mat,72
real,72
type,72
en,13033,357
r,72
rmod,72,1,1.0,              ! FX
mat,73
real,73
type,72
en,13034,357
r,73
rmod,73,2,1.0,              ! FY
mat,74
real,74
type,72
en,13035,357
r,74
rmod,74,3,1.0,              ! FZ
/com,*********** Define Vertex Force Using Follower Elements ***********
et,75,201
keyo,75,1,1           ! Keep the direction constant
keyo,75,2,1           ! Apply Forces only, not moment
mat,75
real,75
type,75
en,13036,11
r,75
rmod,75,1,1.0,              ! FX
mat,76
real,76
type,75
en,13037,11
r,76
rmod,76,2,1.0,              ! FY
mat,77
real,77
type,75
en,13038,11
r,77
rmod,77,3,1.0,              ! FZ
/com,*********** Define Vertex Force Using Follower Elements ***********
et,78,201
keyo,78,1,1           ! Keep the direction constant
keyo,78,2,1           ! Apply Forces only, not moment
mat,78
real,78
type,78
en,13039,8
r,78
rmod,78,1,1.0,              ! FX
mat,79
real,79
type,78
en,13040,8
r,79
rmod,79,2,1.0,              ! FY
mat,80
real,80
type,78
en,13041,8
r,80
rmod,80,3,1.0,              ! FZ
/gst,on,on
fini
*get,_numnode,node,0,count
*get,_numelem,elem,0,count
*get, _MAXELEMNUM, elem, 0, NUM, MAX
*get, _MAXNODENUM, node, 0, NUM, MAX
*get, _MAXELEMTYPE, etyp, 0, NUM, MAX
*get, _MAXREALCONST, real, 0, NUM, MAX
/go
/wb,load,end               !  done creating loads
/com,--- Number of total nodes = %_numnode%
/com,--- Number of contact elements = 0
/com,--- Number of spring elements = 0
/com,--- Number of bearing elements = 0
/com,--- Number of solid elements = 12987
/com,--- Number of condensed parts = 0
/com,--- Number of total elements = %_numelem%
*get,_wallbsol,active,,time,wall
/com,****************************************************************************
/com,*************************    SOLUTION       ********************************
/com,****************************************************************************
/solu
antype,0                   ! static analysis
_thickRatio=  0     ! Ratio of thick parts in the model
eqsl,sparse,,,,,1
cntr,print,1               ! print out contact info and also make no initial contact an error
dmpoption,emat,no             ! Don't combine emat file for DANSYS
dmpoption,esav,no             ! Don't combine esav file for DANSYS
nldiag,cont,iter           ! print out contact info each equilibrium iteration
rescontrol,,none                 ! Do not keep any restart files
/com,****************************************************
/com,******************* SOLVE FOR LS 1 OF 1 ****************
esel,s,real,,27
sfe,all,1,pres,1,2.24808943074769e-009
esel,s,real,,28
sfe,all,1,pres,1,0.
esel,s,real,,29
sfe,all,1,pres,1,0.
esel,s,real,,30
sfe,all,1,pres,1,2.24808943074769e-009
esel,s,real,,31
sfe,all,1,pres,1,0.
esel,s,real,,32
sfe,all,1,pres,1,0.
esel,s,real,,33
sfe,all,1,pres,1,2.24808943074769e-009
esel,s,real,,34
sfe,all,1,pres,1,0.
esel,s,real,,35
sfe,all,1,pres,1,0.
esel,s,real,,36
sfe,all,1,pres,1,2.24808943074769e-009
esel,s,real,,37
sfe,all,1,pres,1,0.
esel,s,real,,38
sfe,all,1,pres,1,0.
esel,s,real,,39
sfe,all,1,pres,1,2.24808943074769e-009
esel,s,real,,40
sfe,all,1,pres,1,0.
esel,s,real,,41
sfe,all,1,pres,1,0.
esel,s,real,,42
sfe,all,1,pres,1,2.24808943074769e-009
esel,s,real,,43
sfe,all,1,pres,1,0.
esel,s,real,,44
sfe,all,1,pres,1,0.
esel,s,real,,45
sfe,all,1,pres,1,2.24808943074769e-009
esel,s,real,,46
sfe,all,1,pres,1,0.
! ... 68 like lines cut
esel,all
/nopr
/gopr
nsub,1,1,1
time,1.
outres,erase
outres,all,none
outres,nsol,all,
outres,rsol,all
outres,eangl,all
outres,etmp,all
outres,veng,all
outres,strs,all,
outres,epel,all,
outres,eppl,all,
outres,cont,all,
! *********** WB SOLVE COMMAND ***********
! check interactive state
*get,ANSINTER_,active,,int
*if,ANSINTER_,ne,0,then
/eof
*endif
solve
/com *************** Write FE CONNECTORS ********* 
CEWRITE,file,ce,,INTE
/com,****************************************************
/com,*************** FINISHED SOLVE FOR LS 1 *************
*get,_wallasol,active,,time,wall
/nopr
*get,_numnode,node,0,count
*get,_numelem,elem,0,count
*get, _MAXELEMNUM, elem, 0, NUM, MAX
*get, _MAXNODENUM, node, 0, NUM, MAX,,,INTERNAL
*get, _MAXELEMTYPE, etyp, 0, NUM, MAX
*get, _MAXREALCONST, real, 0, NUM, MAX
/gopr
/post1
xmlo,ENCODING,ISO-8859-1
xmlo,parm
/xml,parm,xml
fini
/gopr
*get,_walldone,active,,time,wall
_preptime=(_wallbsol-_wallstrt)*3600
_solvtime=(_wallasol-_wallbsol)*3600
_posttime=(_walldone-_wallasol)*3600
_totaltim=(_walldone-_wallstrt)*3600
*get,_dlbratio,active,0,solu,dlbr
*get,_combtime,active,0,solu,comb
*get,_ssmode,active,0,solu,ssmm
*get,_ndofs,active,0,solu,ndof
*get,_sol_end_time,active,0,set,time
*if,_sol_end_time,eq,1.000000,then
/fclean				!clean distributed files
*endif
/com,--- Total number of nodes = %_numnode%
/com,--- Total number of elements = %_numelem%
/com,--- Element load balance ratio = %_dlbratio%
/com,--- Time to combine distributed files = %_combtime%
/com,--- Sparse memory mode = %_ssmode%
/com,--- Number of DOF = %_ndofs%
/wb,file,end               ! done with WB generated input
